<?xml version="1.0" encoding="UTF-8"?>
<form xmlns="http://www.intellij.com/uidesigner/form/" version="1" bind-to-class="SettingsForm">
  <grid id="27dc6" binding="rootComponent" layout-manager="GridLayoutManager" row-count="4" column-count="2" same-size-horizontally="false" same-size-vertically="false" hgap="-1" vgap="-1">
    <margin top="0" left="0" bottom="0" right="0"/>
    <constraints>
      <xy x="20" y="20" width="583" height="616"/>
    </constraints>
    <properties/>
    <border type="none"/>
    <children>
      <splitpane id="846f5" binding="splitPane">
        <constraints>
          <grid row="0" column="0" row-span="1" col-span="2" vsize-policy="3" hsize-policy="3" anchor="0" fill="3" indent="0" use-parent-layout="false"/>
        </constraints>
        <properties/>
        <border type="none"/>
        <children>
          <grid id="8d5e5" binding="leftPanel" layout-manager="GridLayoutManager" row-count="2" column-count="2" same-size-horizontally="false" same-size-vertically="false" hgap="-1" vgap="-1">
            <margin top="0" left="0" bottom="0" right="0"/>
            <constraints>
              <splitpane position="left"/>
            </constraints>
            <properties/>
            <border type="none"/>
            <children>
              <component id="79a6b" class="javax.swing.JLabel">
                <constraints>
                  <grid row="0" column="0" row-span="1" col-span="1" vsize-policy="0" hsize-policy="0" anchor="8" fill="0" indent="0" use-parent-layout="false"/>
                </constraints>
                <properties>
                  <font/>
                  <text value="Path (APPPATH, MODPATH)"/>
                </properties>
              </component>
              <grid id="e7b1" binding="pathListPanel" custom-create="true" layout-manager="GridLayoutManager" row-count="1" column-count="1" same-size-horizontally="false" same-size-vertically="false" hgap="-1" vgap="-1">
                <margin top="0" left="0" bottom="0" right="0"/>
                <constraints>
                  <grid row="1" column="0" row-span="1" col-span="2" vsize-policy="3" hsize-policy="3" anchor="0" fill="3" indent="0" use-parent-layout="false"/>
                </constraints>
                <properties/>
                <border type="none"/>
                <children/>
              </grid>
              <hspacer id="935bf">
                <constraints>
                  <grid row="0" column="1" row-span="1" col-span="1" vsize-policy="1" hsize-policy="6" anchor="0" fill="1" indent="0" use-parent-layout="false"/>
                </constraints>
              </hspacer>
            </children>
          </grid>
          <grid id="f9af" binding="rightPanel" layout-manager="GridLayoutManager" row-count="2" column-count="3" same-size-horizontally="false" same-size-vertically="false" hgap="-1" vgap="-1">
            <margin top="0" left="0" bottom="0" right="0"/>
            <constraints>
              <splitpane position="right"/>
            </constraints>
            <properties/>
            <border type="none"/>
            <children>
              <component id="a0798" class="javax.swing.JLabel">
                <constraints>
                  <grid row="0" column="0" row-span="1" col-span="2" vsize-policy="0" hsize-policy="0" anchor="8" fill="0" indent="0" use-parent-layout="false"/>
                </constraints>
                <properties>
                  <font/>
                  <text value="Factory classes"/>
                </properties>
              </component>
              <grid id="1d4b" binding="classesListPanel" custom-create="true" layout-manager="GridLayoutManager" row-count="1" column-count="1" same-size-horizontally="false" same-size-vertically="false" hgap="-1" vgap="-1">
                <margin top="0" left="0" bottom="0" right="0"/>
                <constraints>
                  <grid row="1" column="0" row-span="1" col-span="3" vsize-policy="3" hsize-policy="3" anchor="0" fill="3" indent="0" use-parent-layout="false"/>
                </constraints>
                <properties/>
                <border type="none"/>
                <children/>
              </grid>
              <hspacer id="ddd2d">
                <constraints>
                  <grid row="0" column="2" row-span="1" col-span="1" vsize-policy="1" hsize-policy="6" anchor="0" fill="1" indent="0" use-parent-layout="false"/>
                </constraints>
              </hspacer>
            </children>
          </grid>
        </children>
      </splitpane>
      <component id="d272e" class="javax.swing.JCheckBox" binding="usePSR0CheckBox" default-binding="true">
        <constraints>
          <grid row="1" column="0" row-span="1" col-span="2" vsize-policy="0" hsize-policy="3" anchor="8" fill="0" indent="0" use-parent-layout="false"/>
        </constraints>
        <properties>
          <text value="Use PSR-0"/>
        </properties>
      </component>
      <component id="9d04d" class="javax.swing.JLabel">
        <constraints>
          <grid row="3" column="0" row-span="1" col-span="1" vsize-policy="0" hsize-policy="0" anchor="8" fill="0" indent="0" use-parent-layout="false"/>
        </constraints>
        <properties>
          <text value="Factory aliases"/>
        </properties>
      </component>
      <component id="8407a" class="javax.swing.JTextField" binding="textField1" default-binding="true">
        <constraints>
          <grid row="3" column="1" row-span="1" col-span="1" vsize-policy="0" hsize-policy="6" anchor="8" fill="1" indent="0" use-parent-layout="false">
            <preferred-size width="150" height="-1"/>
          </grid>
        </constraints>
        <properties/>
      </component>
      <component id="22601" class="javax.swing.JCheckBox" binding="debugModeCheckBox" default-binding="true">
        <constraints>
          <grid row="2" column="0" row-span="1" col-span="1" vsize-policy="0" hsize-policy="3" anchor="8" fill="0" indent="0" use-parent-layout="false"/>
        </constraints>
        <properties>
          <text value="DebugMode"/>
        </properties>
      </component>
    </children>
  </grid>
</form>
